<NUMBER OF ZONES> 4
<TOTAL OD FLOW> 6
<END OF METADATA>


Origin 	1 
    3 :  8;