<NUMBER OF ZONES> 4
<TOTAL OD FLOW> 6
<END OF METADATA>
<TOLL FACTOR> 0

Origin 	1 
    3 :  8;