<NUMBER OF ZONES> 39
<TOTAL OD FLOW> 360600.0
<END OF METADATA>


Origin 	1 
    1 :      0.0;     2 :    100.0;     3 :    100.0;    25 :    500.0;     5 :    200.0; 
    6 :    300.0;     7 :    500.0;     8 :    800.0;     9 :    500.0;    10 :   1300.0; 
   28 :    500.0;    12 :    200.0;    13 :    500.0;    31 :    300.0;    15 :    500.0; 
   16 :    500.0;    17 :    400.0;    18 :    100.0;    19 :    300.0;    20 :    300.0; 
   21 :    100.0;    22 :    400.0;    34 :    300.0;    37 :    100.0; 

Origin 	2 
    1 :    100.0;     2 :      0.0;     3 :    100.0;    25 :    200.0;     5 :    100.0; 
    6 :    400.0;     7 :    200.0;     8 :    400.0;     9 :    200.0;    10 :    600.0; 
   28 :    200.0;    12 :    100.0;    13 :    300.0;    31 :    100.0;    15 :    100.0; 
   16 :    400.0;    17 :    200.0;    18 :      0.0;    19 :    100.0;    20 :    100.0; 
   21 :      0.0;    22 :    100.0;    34 :      0.0;    37 :      0.0; 

Origin 	3 
    1 :    100.0;     2 :    100.0;     3 :      0.0;    25 :    200.0;     5 :    100.0; 
    6 :    300.0;     7 :    100.0;     8 :    200.0;     9 :    100.0;    10 :    300.0; 
   28 :    300.0;    12 :    200.0;    13 :    100.0;    31 :    100.0;    15 :    100.0; 
   16 :    200.0;    17 :    100.0;    18 :      0.0;    19 :      0.0;    20 :      0.0; 
   21 :      0.0;    22 :    100.0;    34 :    100.0;    37 :      0.0; 

Origin 	4 
    1 :      0.0;     2 :      0.0;     3 :      0.0;    25 :      0.0;     5 :      0.0; 
    6 :      0.0;     7 :      0.0;     8 :      0.0;     9 :      0.0;    10 :      0.0; 
   28 :      0.0;    12 :      0.0;    13 :      0.0;    31 :      0.0;    15 :      0.0; 
   16 :      0.0;    17 :      0.0;    18 :      0.0;    19 :      0.0;    20 :      0.0; 
   21 :      0.0;    22 :      0.0;    34 :      0.0;    37 :      0.0; 

Origin 	25 
   
Origin 	26
    1 :    500.0;     2 :    200.0;     3 :    200.0;    25 :      0.0;     5 :    500.0; 
    6 :    400.0;     7 :    400.0;     8 :    700.0;     9 :    700.0;    10 :   1200.0; 
   28 :   1400.0;    12 :    600.0;    13 :    600.0;    31 :    500.0;    15 :    500.0; 
   16 :    800.0;    17 :    500.0;    18 :    100.0;    19 :    200.0;    20 :    300.0; 
   21 :    200.0;    22 :    400.0;    34 :    500.0;    37 :    200.0; 

Origin 	27
    1 :      0.0;     2 :      0.0;     3 :      0.0;    25 :      0.0;     5 :      0.0; 
    6 :      0.0;     7 :      0.0;     8 :      0.0;     9 :      0.0;    10 :      0.0; 
   28 :      0.0;    12 :      0.0;    13 :      0.0;    31 :      0.0;    15 :      0.0; 
   16 :      0.0;    17 :      0.0;    18 :      0.0;    19 :      0.0;    20 :      0.0; 
   21 :      0.0;    22 :      0.0;    34 :      0.0;    37 :      0.0; 

Origin 	5 
    1 :    200.0;     2 :    100.0;     3 :    100.0;    25 :    500.0;     5 :      0.0; 
    6 :    200.0;     7 :    200.0;     8 :    500.0;     9 :    800.0;    10 :   1000.0; 
   28 :    500.0;    12 :    200.0;    13 :    200.0;    31 :    100.0;    15 :    200.0; 
   16 :    500.0;    17 :    200.0;    18 :      0.0;    19 :    100.0;    20 :    100.0; 
   21 :    100.0;    22 :    200.0;    34 :    100.0;    37 :      0.0; 

Origin 	6 
    1 :    300.0;     2 :    400.0;     3 :    300.0;    25 :    400.0;     5 :    200.0; 
    6 :      0.0;     7 :    400.0;     8 :    800.0;     9 :    400.0;    10 :    800.0; 
   28 :    400.0;    12 :    200.0;    13 :    200.0;    31 :    100.0;    15 :    200.0; 
   16 :    900.0;    17 :    500.0;    18 :    100.0;    19 :    200.0;    20 :    300.0; 
   21 :    100.0;    22 :    200.0;    34 :    100.0;    37 :    100.0; 

Origin 	7 
    1 :    500.0;     2 :    200.0;     3 :    100.0;    25 :    400.0;     5 :    200.0; 
    6 :    400.0;     7 :      0.0;     8 :   1000.0;     9 :    600.0;    10 :   1900.0; 
   28 :    500.0;    12 :    700.0;    13 :    400.0;    31 :    200.0;    15 :    500.0; 
   16 :   1400.0;    17 :   1000.0;    18 :    200.0;    19 :    400.0;    20 :    500.0; 
   21 :    200.0;    22 :    500.0;    34 :    200.0;    37 :    100.0; 

Origin 	8 
    1 :    800.0;     2 :    400.0;     3 :    200.0;    25 :    700.0;     5 :    500.0; 
    6 :    800.0;     7 :   1000.0;     8 :      0.0;     9 :    800.0;    10 :   1600.0; 
   28 :    800.0;    12 :    600.0;    13 :    600.0;    31 :    400.0;    15 :    600.0; 
   16 :   2200.0;    17 :   1400.0;    18 :    300.0;    19 :    700.0;    20 :    900.0; 
   21 :    400.0;    22 :    500.0;    34 :    300.0;    37 :    200.0; 

Origin 	9 
    1 :    500.0;     2 :    200.0;     3 :    100.0;    25 :    700.0;     5 :    800.0; 
    6 :    400.0;     7 :    600.0;     8 :    800.0;     9 :      0.0;    10 :   2800.0; 
   28 :   1400.0;    12 :    600.0;    13 :    600.0;    31 :    600.0;    15 :    900.0; 
   16 :   1400.0;    17 :    900.0;    18 :    200.0;    19 :    400.0;    20 :    600.0; 
   21 :    300.0;    22 :    700.0;    34 :    500.0;    37 :    200.0; 

Origin 	10 
    1 :   1300.0;     2 :    600.0;     3 :    300.0;    25 :   1200.0;     5 :   1000.0; 
    6 :    800.0;     7 :   1900.0;     8 :   1600.0;     9 :   2800.0;    10 :      0.0; 
   28 :   4000.0;    12 :   2000.0;    13 :   1900.0;    31 :   2100.0;    15 :   4000.0; 
   16 :   4400.0;    17 :   3900.0;    18 :    700.0;    19 :   1800.0;    20 :   2500.0; 
   21 :   1200.0;    22 :   2600.0;    34 :   1800.0;    37 :    800.0; 

Origin 	11 
    1 :      0.0;     2 :      0.0;     3 :      0.0;    25 :      0.0;     5 :      0.0; 
    6 :      0.0;     7 :      0.0;     8 :      0.0;     9 :      0.0;    10 :      0.0; 
   28 :      0.0;    12 :      0.0;    13 :      0.0;    31 :      0.0;    15 :      0.0; 
   16 :      0.0;    17 :      0.0;    18 :      0.0;    19 :      0.0;    20 :      0.0; 
   21 :      0.0;    22 :      0.0;    34 :      0.0;    37 :      0.0; 

Origin 	28 

Origin 	29 
    1 :    500.0;     2 :    200.0;     3 :    300.0;    25 :   1500.0;     5 :    500.0; 
    6 :    400.0;     7 :    500.0;     8 :    800.0;     9 :   1400.0;    10 :   3900.0; 
   28 :      0.0;    12 :   1400.0;    13 :   1000.0;    31 :   1600.0;    15 :   1400.0; 
   16 :   1400.0;    17 :   1000.0;    18 :    100.0;    19 :    400.0;    20 :    600.0; 
   21 :    400.0;    22 :   1100.0;    34 :   1300.0;    37 :    600.0; 

Origin 	30
    1 :      0.0;     2 :      0.0;     3 :      0.0;    25 :      0.0;     5 :      0.0; 
    6 :      0.0;     7 :      0.0;     8 :      0.0;     9 :      0.0;    10 :      0.0; 
   28 :      0.0;    12 :      0.0;    13 :      0.0;    31 :      0.0;    15 :      0.0; 
   16 :      0.0;    17 :      0.0;    18 :      0.0;    19 :      0.0;    20 :      0.0; 
   21 :      0.0;    22 :      0.0;    34 :      0.0;    37 :      0.0; 

Origin 	12 
    1 :    200.0;     2 :    100.0;     3 :    200.0;    25 :    600.0;     5 :    200.0; 
    6 :    200.0;     7 :    700.0;     8 :    600.0;     9 :    600.0;    10 :   2000.0; 
   28 :   1400.0;    12 :      0.0;    13 :   1300.0;    31 :    700.0;    15 :    700.0; 
   16 :    700.0;    17 :    600.0;    18 :    200.0;    19 :    300.0;    20 :    400.0; 
   21 :    300.0;    22 :    700.0;    34 :    700.0;    37 :    500.0; 

Origin 	13 
    1 :    500.0;     2 :    300.0;     3 :    100.0;    25 :    600.0;     5 :    200.0; 
    6 :    200.0;     7 :    400.0;     8 :    600.0;     9 :    600.0;    10 :   1900.0; 
   28 :   1000.0;    12 :   1300.0;    13 :      0.0;    31 :    600.0;    15 :    700.0; 
   16 :    600.0;    17 :    500.0;    18 :    100.0;    19 :    300.0;    20 :    600.0; 
   21 :    600.0;    22 :   1300.0;    34 :    800.0;    37 :    800.0; 

Origin 	14 
    1 :      0.0;     2 :      0.0;     3 :      0.0;    25 :      0.0;     5 :      0.0; 
    6 :      0.0;     7 :      0.0;     8 :      0.0;     9 :      0.0;    10 :      0.0; 
   28 :      0.0;    12 :      0.0;    13 :      0.0;    31 :      0.0;    15 :      0.0; 
   16 :      0.0;    17 :      0.0;    18 :      0.0;    19 :      0.0;    20 :      0.0; 
   21 :      0.0;    22 :      0.0;    34 :      0.0;    37 :      0.0; 

Origin 	31 

Origin 	32 
    1 :    300.0;     2 :    100.0;     3 :    100.0;    25 :    500.0;     5 :    100.0; 
    6 :    100.0;     7 :    200.0;     8 :    400.0;     9 :    600.0;    10 :   2100.0; 
   28 :   1600.0;    12 :    700.0;    13 :    600.0;    31 :      0.0;    15 :   1300.0; 
   16 :    700.0;    17 :    700.0;    18 :    100.0;    19 :    300.0;    20 :    500.0; 
   21 :    400.0;    22 :   1200.0;    34 :   1100.0;    37 :    400.0; 

Origin 	33
    1 :      0.0;     2 :      0.0;     3 :      0.0;    25 :      0.0;     5 :      0.0; 
    6 :      0.0;     7 :      0.0;     8 :      0.0;     9 :      0.0;    10 :      0.0; 
   28 :      0.0;    12 :      0.0;    13 :      0.0;    31 :      0.0;    15 :      0.0; 
   16 :      0.0;    17 :      0.0;    18 :      0.0;    19 :      0.0;    20 :      0.0; 
   21 :      0.0;    22 :      0.0;    34 :      0.0;    37 :      0.0; 

Origin 	15 
    1 :    500.0;     2 :    100.0;     3 :    100.0;    25 :    500.0;     5 :    200.0; 
    6 :    200.0;     7 :    500.0;     8 :    600.0;     9 :   1000.0;    10 :   4000.0; 
   28 :   1400.0;    12 :    700.0;    13 :    700.0;    31 :   1300.0;    15 :      0.0; 
   16 :   1200.0;    17 :   1500.0;    18 :    200.0;    19 :    800.0;    20 :   1100.0; 
   21 :    800.0;    22 :   2600.0;    34 :   1000.0;    37 :    400.0; 

Origin 	16 
    1 :    500.0;     2 :    400.0;     3 :    200.0;    25 :    800.0;     5 :    500.0; 
    6 :    900.0;     7 :   1400.0;     8 :   2200.0;     9 :   1400.0;    10 :   4400.0; 
   28 :   1400.0;    12 :    700.0;    13 :    600.0;    31 :    700.0;    15 :   1200.0; 
   16 :      0.0;    17 :   2800.0;    18 :    500.0;    19 :   1300.0;    20 :   1600.0; 
   21 :    600.0;    22 :   1200.0;    34 :    500.0;    37 :    300.0; 

Origin 	17 
    1 :    400.0;     2 :    200.0;     3 :    100.0;    25 :    500.0;     5 :    200.0; 
    6 :    500.0;     7 :   1000.0;     8 :   1400.0;     9 :    900.0;    10 :   3900.0; 
   28 :   1000.0;    12 :    600.0;    13 :    500.0;    31 :    700.0;    15 :   1500.0; 
   16 :   2800.0;    17 :      0.0;    18 :    600.0;    19 :   1700.0;    20 :   1700.0; 
   21 :    600.0;    22 :   1700.0;    34 :    600.0;    37 :    300.0; 

Origin 	18 
    1 :    100.0;     2 :      0.0;     3 :      0.0;    25 :    100.0;     5 :      0.0; 
    6 :    100.0;     7 :    200.0;     8 :    300.0;     9 :    200.0;    10 :    700.0; 
   28 :    200.0;    12 :    200.0;    13 :    100.0;    31 :    100.0;    15 :    200.0; 
   16 :    500.0;    17 :    600.0;    18 :      0.0;    19 :    300.0;    20 :    400.0; 
   21 :    100.0;    22 :    300.0;    34 :    100.0;    37 :      0.0; 

Origin 	19 
    1 :    300.0;     2 :    100.0;     3 :      0.0;    25 :    200.0;     5 :    100.0; 
    6 :    200.0;     7 :    400.0;     8 :    700.0;     9 :    400.0;    10 :   1800.0; 
   28 :    400.0;    12 :    300.0;    13 :    300.0;    31 :    300.0;    15 :    800.0; 
   16 :   1300.0;    17 :   1700.0;    18 :    300.0;    19 :      0.0;    20 :   1200.0; 
   21 :    400.0;    22 :   1200.0;    34 :    300.0;    37 :    100.0; 

Origin 	20 
    1 :    300.0;     2 :    100.0;     3 :      0.0;    25 :    300.0;     5 :    100.0; 
    6 :    300.0;     7 :    500.0;     8 :    900.0;     9 :    600.0;    10 :   2500.0; 
   28 :    600.0;    12 :    500.0;    13 :    600.0;    31 :    500.0;    15 :   1100.0; 
   16 :   1600.0;    17 :   1700.0;    18 :    400.0;    19 :   1200.0;    20 :      0.0; 
   21 :   1200.0;    22 :   2400.0;    34 :    700.0;    37 :    400.0; 

Origin 	21 
    1 :    100.0;     2 :      0.0;     3 :      0.0;    25 :    200.0;     5 :    100.0; 
    6 :    100.0;     7 :    200.0;     8 :    400.0;     9 :    300.0;    10 :   1200.0; 
   28 :    400.0;    12 :    300.0;    13 :    600.0;    31 :    400.0;    15 :    800.0; 
   16 :    600.0;    17 :    600.0;    18 :    100.0;    19 :    400.0;    20 :   1200.0; 
   21 :      0.0;    22 :   1800.0;    34 :    700.0;    37 :    500.0; 

Origin 	22 
    1 :    400.0;     2 :    100.0;     3 :    100.0;    25 :    400.0;     5 :    200.0; 
    6 :    200.0;     7 :    500.0;     8 :    500.0;     9 :    700.0;    10 :   2600.0; 
   28 :   1100.0;    12 :    700.0;    13 :   1300.0;    31 :   1200.0;    15 :   2600.0; 
   16 :   1200.0;    17 :   1700.0;    18 :    300.0;    19 :   1200.0;    20 :   2400.0; 
   21 :   1800.0;    22 :      0.0;    34 :   2100.0;    37 :   1100.0; 

Origin 	23 
    1 :      0.0;     2 :      0.0;     3 :      0.0;    25 :      0.0;     5 :      0.0; 
    6 :      0.0;     7 :      0.0;     8 :      0.0;     9 :      0.0;    10 :      0.0; 
   28 :      0.0;    12 :      0.0;    13 :      0.0;    31 :      0.0;    15 :      0.0; 
   16 :      0.0;    17 :      0.0;    18 :      0.0;    19 :      0.0;    20 :      0.0; 
   21 :      0.0;    22 :      0.0;    34 :      0.0;    37 :      0.0; 

Origin 	34

Origin 	35 
    1 :    300.0;     2 :      0.0;     3 :    100.0;    25 :    500.0;     5 :    100.0; 
    6 :    100.0;     7 :    200.0;     8 :    300.0;     9 :    500.0;    10 :   1800.0; 
   28 :   1300.0;    12 :    700.0;    13 :    800.0;    31 :   1100.0;    15 :   1000.0; 
   16 :    500.0;    17 :    600.0;    18 :    100.0;    19 :    300.0;    20 :    700.0; 
   21 :    700.0;    22 :   2100.0;    34 :      0.0;    37 :    700.0; 

Origin 	36
    1 :      0.0;     2 :      0.0;     3 :      0.0;    25 :      0.0;     5 :      0.0; 
    6 :      0.0;     7 :      0.0;     8 :      0.0;     9 :      0.0;    10 :      0.0; 
   28 :      0.0;    12 :      0.0;    13 :      0.0;    31 :      0.0;    15 :      0.0; 
   16 :      0.0;    17 :      0.0;    18 :      0.0;    19 :      0.0;    20 :      0.0; 
   21 :      0.0;    22 :      0.0;    34 :      0.0;    37 :      0.0; 

Origin 	24 
    1 :      0.0;     2 :      0.0;     3 :      0.0;    25 :      0.0;     5 :      0.0; 
    6 :      0.0;     7 :      0.0;     8 :      0.0;     9 :      0.0;    10 :      0.0; 
   28 :      0.0;    12 :      0.0;    13 :      0.0;    31 :      0.0;    15 :      0.0; 
   16 :      0.0;    17 :      0.0;    18 :      0.0;    19 :      0.0;    20 :      0.0; 
   21 :      0.0;    22 :      0.0;    34 :      0.0;    37 :      0.0; 

Origin 	37 

Origin 	38 
    1 :    100.0;     2 :      0.0;     3 :      0.0;    25 :    200.0;     5 :      0.0; 
    6 :    100.0;     7 :    100.0;     8 :    200.0;     9 :    200.0;    10 :    800.0; 
   28 :    600.0;    12 :    500.0;    13 :    700.0;    31 :    400.0;    15 :    400.0; 
   16 :    300.0;    17 :    300.0;    18 :      0.0;    19 :    100.0;    20 :    400.0; 
   21 :    500.0;    22 :   1100.0;    34 :    700.0;    37 :      0.0; 

Origin 	39
    1 :      0.0;     2 :      0.0;     3 :      0.0;    25 :      0.0;     5 :      0.0; 
    6 :      0.0;     7 :      0.0;     8 :      0.0;     9 :      0.0;    10 :      0.0; 
   28 :      0.0;    12 :      0.0;    13 :      0.0;    31 :      0.0;    15 :      0.0; 
   16 :      0.0;    17 :      0.0;    18 :      0.0;    19 :      0.0;    20 :      0.0; 
   21 :      0.0;    22 :      0.0;    34 :      0.0;    37 :      0.0; 

